%mem=36GB
%nprocshared=36
# opt freq hseh1pbe/6-311g(d,p)

Segundo isomero y18

0 1
 C                  2.86079300   -1.71043500   -0.15795800
 C                  2.77659300   -3.09185800   -0.32001000
 C                  1.41773200   -3.44765400   -0.24255700
 C                  0.70585700   -2.23328300   -0.07459900
 C                  0.69724100   -4.67045000   -0.20881200
 C                 -0.70987200   -2.23493600   -0.03811900
 C                 -1.41987800   -3.45526000    0.08934500
 C                 -0.69699700   -4.67518800    0.02069300
 C                 -2.77951700   -3.10456300    0.17581200
 C                 -2.86582500   -1.71875000    0.05880300
 N                  1.59929700   -1.16831300    0.00292000
 N                 -1.60501300   -1.16947000   -0.08210300
 S                 -4.31744300   -3.87875500    0.35192500
 C                 -5.10945700   -2.30711500    0.23219900
 C                 -4.18748600   -1.25522700    0.07456800
 C                 -6.43973700   -1.88498400    0.26763600
 S                 -4.93997200    0.28149900   -0.03226200
 C                 -6.52889500   -0.47480800    0.12894600
 C                 -7.78971858   -2.91808030    0.38591686
 H                 -8.84713412   -2.70810052    0.49028086
 C                 -7.95156220   -4.28832747    0.35753594
 C                 -6.87588726   -5.28319262    0.22685818
 C                 -9.21320872   -5.00516172    0.45045210
 C                 -7.52263940   -6.60846681    0.24177057
 C                 -8.90517342   -6.45025552    0.37387957
 C                 -6.91180056   -7.84480898    0.14418532
 C                 -9.72024608   -7.58044066    0.41047482
 C                 -7.72822308   -8.95727109    0.18154691
 H                 -5.83723665   -7.94103158    0.04224501
 C                 -9.11154475   -8.81852531    0.31298950
 H                -10.79650604   -7.54771977    0.51006272
 N                  1.11111400   -5.93767200   -0.30368800
 N                 -1.11090000   -5.94529000    0.06278600
 S                  4.31544300   -3.85707300   -0.52507100
 C                  5.10506200   -2.28882800   -0.35528900
 C                  4.18163400   -1.24431400   -0.16134400
 C                  6.43452200   -1.86337400   -0.37993400
 S                  4.93175200    0.28941900   -0.00579100
 C                  6.52158900   -0.45834200   -0.19529700
 C                  7.70442402   -3.23557851   -0.65280662
 H                  8.68283893   -2.78543890   -0.53793954
 C                  7.72294580   -4.59507573   -0.88947279
 C                  8.90768368   -5.43169985   -0.99280240
 C                  6.54504928   -5.45517193   -1.08106508
 C                  8.44889148   -6.81509321   -1.24732836
 C                  7.05203794   -6.82283983   -1.29857420
 C                  9.14431566   -8.00957216   -1.42788137
 C                  6.31278146   -7.96939096   -1.52243405
 C                  8.40700455   -9.15807137   -1.65192990
 H                 10.22222605   -8.09221303   -1.40331185
 C                  7.01141845   -9.14662898   -1.70002422
 H                  5.22986938   -7.94924286   -1.55754568
 C                 10.23276243   -5.06496270   -0.88472119
 C                 10.67357228   -3.73748178   -0.64200024
 C                 11.30543311   -5.98796967   -1.00734418
 N                 11.06847717   -2.66798735   -0.44529541
 N                 12.20175360   -6.71183197   -1.10169495
 C                -10.48649719   -4.49295776    0.58605783
 C                -11.64624641   -5.30907912    0.66681673
 C                -10.78253815   -3.10650186    0.66042639
 N                -11.06038733   -1.98525551    0.72421465
 N                -12.61030417   -5.94323023    0.73546721
 O                  5.37359356   -5.12972390   -1.06737226
 O                 -5.68127992   -5.08108834    0.12451354
 I                  9.03098740  -10.31838983   -1.82911337
 I                  6.37334937  -10.29174969   -1.91996482
 I                 -7.21745715  -10.18126970    0.09347772
 I                 -9.85225588   -9.92193088    0.34360945
 N                 -0.00112200   -6.62805200   -0.14194500
 C                  0.01154900   -8.08009100   -0.09385400
 H                  0.80860700   -8.40137800   -0.76504000
 H                 -0.94671400   -8.40884700   -0.49746900
 C                  0.22838700   -8.59784300    1.31757700
 H                  0.23203500   -9.69033500    1.31539700
 H                  1.18540600   -8.25009100    1.71201200
 H                 -0.57027100   -8.25642400    1.97932200
 C                 -1.42239500    0.00773100   -0.94164400
 H                 -1.99660100    0.83070300   -0.50602700
 H                 -0.37243700    0.29248500   -0.90907200
 C                 -1.83494300   -0.24387300   -2.38379200
 H                 -1.25172700   -1.06098100   -2.81571200
 H                 -2.89520500   -0.49422400   -2.46052800
 H                 -1.65687900    0.65520000   -2.97902800
 C                  1.41567800   -0.01984400    0.90021300
 H                  1.98727900    0.81806600    0.49041000
 H                  0.36500800    0.26339300    0.87861400
 C                  1.83135300   -0.31676800    2.33280900
 H                  1.25096800   -1.14894500    2.73901700
 H                  2.89238800   -0.56666000    2.39966100
 H                  1.65200500    0.56213600    2.95707400
 C                 -7.85662435    0.30535567    0.12003399
 H                 -8.46001611   -0.02684652   -0.69878229
 H                 -8.37708732    0.13413908    1.03911134
 C                  7.84799525    0.32348648   -0.16382169
 H                  8.44545164   -0.02052718    0.65446949
 H                  8.37592622    0.16730602   -1.08131641
 C                 -7.56684256    1.81006570   -0.03317902
 H                 -6.95380701    2.13978096    0.77945575
 H                 -7.05664622    1.98270174   -0.95773106
 H                 -8.48873270    2.35319434   -0.02771488
 C                  7.55468452    1.82522024    0.01043252
 H                  6.93896649    2.16432436   -0.79628906
 H                  7.04613587    1.98397387    0.93837408
 H                  8.47515752    2.37077449    0.01028520

